# TRIPOS MOL2 file generated by SEED

@<TRIPOS>MOLECULE
4pci_ligand
 35 37 0 0 0
****
USER_CHARGES
INVALID_CHARGES
Pose:   1 Cluster:   1 Fr_nu:    111 TotEn:   -25.97
@<TRIPOS>ATOM
      1 N         -25.0114   44.6750   10.4682 N.am   1 LIG      -0.29800
      2 C         -23.8711   44.3550    9.6071 C.3    1 LIG      -0.08800
      3 O         -24.3995   43.2028   12.0293 O.2    1 LIG      -0.54200
      4 C1        -25.9763   45.5479    9.9243 C.ar   1 LIG       0.13600
      5 N1        -27.8044   44.1127   10.5781 N.pl3  1 LIG      -0.43000
      6 C2        -25.5424   46.7070    9.2775 C.ar   1 LIG      -0.11600
      7 C3        -26.4510   47.5654    8.6679 C.ar   1 LIG      -0.11200
      8 C4        -27.8034   47.2614    8.7042 C.ar   1 LIG      -0.11300
      9 C5        -28.2363   46.1091    9.3562 C.ar   1 LIG      -0.11400
     10 C6        -27.3333   45.2396    9.9647 C.ar   1 LIG       0.07700
     11 C7        -27.6134   43.8538   12.0027 C.3    1 LIG      -0.04800
     12 C8        -26.3360   44.5391   12.4894 C.3    1 LIG      -0.09700
     13 C9        -25.1647   44.0881   11.6488 C.2    1 LIG       0.43100
     14 C10       -28.7673   44.2962   12.8463 C.ar   1 LIG      -0.02800
     15 C11       -29.1963   43.4706   13.8790 C.ar   1 LIG      -0.11300
     16 C12       -30.2641   43.8460   14.6887 C.ar   1 LIG      -0.11500
     17 C13       -30.9070   45.0606   14.4743 C.ar   1 LIG      -0.11500
     18 C14       -30.4801   45.9094   13.4616 C.ar   1 LIG      -0.11500
     19 C15       -29.4100   45.5222   12.6484 C.ar   1 LIG      -0.11300
     20 H1        -23.9308   44.9306    8.7073 H      1 LIG       0.09000
     21 H2        -23.8878   43.3132    9.3650 H      1 LIG       0.09000
     22 H3        -22.9606   44.5873   10.1189 H      1 LIG       0.09000
     23 H4        -28.2915   43.4492   10.0382 H      1 LIG       0.33800
     24 H5        -24.5354   46.9297    9.2516 H      1 LIG       0.11500
     25 H6        -26.1224   48.4206    8.1929 H      1 LIG       0.11500
     26 H7        -28.4867   47.8869    8.2500 H      1 LIG       0.11500
     27 H8        -29.2453   45.8950    9.3896 H      1 LIG       0.11500
     28 H9        -27.5369   42.7922   12.1099 H      1 LIG       0.09000
     29 H10       -26.4467   45.5997   12.4044 H      1 LIG       0.09000
     30 H11       -26.1600   44.2765   13.5118 H      1 LIG       0.09000
     31 H12       -28.7185   42.5712   14.0472 H      1 LIG       0.11500
     32 H13       -30.5792   43.2226   15.4491 H      1 LIG       0.11500
     33 H14       -31.7047   45.3323   15.0706 H      1 LIG       0.11500
     34 H15       -30.9476   46.8174   13.3105 H      1 LIG       0.11500
     35 H16       -29.0908   46.1485   11.8930 H      1 LIG       0.11500
@<TRIPOS>BOND
      1      26       8 1
      2      25       7 1
      3       8       7 ar
      4       8       9 ar
      5       7       6 ar
      6      20       2 1
      7       6      24 1
      8       6       4 ar
      9       9      27 1
     10       9      10 ar
     11      21       2 1
     12       2      22 1
     13       2       1 1
     14       4      10 ar
     15       4       1 1
     16      10       5 1
     17      23       5 1
     18       1      13 am
     19       5      11 1
     20      13       3 2
     21      13      12 1
     22      35      19 1
     23      11      28 1
     24      11      12 1
     25      11      14 1
     26      29      12 1
     27      12      30 1
     28      19      14 ar
     29      19      18 ar
     30      14      15 ar
     31      34      18 1
     32      18      17 ar
     33      15      31 1
     34      15      16 ar
     35      17      16 ar
     36      17      33 1
     37      16      32 1
@<TRIPOS>ALT_TYPE
CGenFF_4.0_ALT_TYPE_SET
CGenFF_4.0 1 NG2S0 2 CG331 3 OG2D1 4 CG2R61 5 NG311 6 CG2R61 7 CG2R61 8 CG2R61 9 CG2R61 10 CG2R61 11 CG311 12 CG321 13 CG2O1 14 CG2R61 15 CG2R61 16 CG2R61 17 CG2R61 18 CG2R61 19 CG2R61 20 HGA3 21 HGA3 22 HGA3 23 HGPAM1 24 HGR61 25 HGR61 26 HGR61 27 HGR61 28 HGA1 29 HGA2 30 HGA2 31 HGR61 32 HGR61 33 HGR61 34 HGR61 35 HGR61
@<TRIPOS>MOLECULE
4pci_ligand_inverted
 35 37 0 0 0
****
USER_CHARGES
INVALID_CHARGES
Pose:   1 Cluster:   1 Fr_nu:    117 TotEn:   -14.01
@<TRIPOS>ATOM
      1 N         -26.1858   53.5032    6.6495 N.am   1 MIR      -0.29800
      2 C         -26.1171   54.4465    7.7674 C.3    1 MIR      -0.08800
      3 O         -27.0437   55.0250    5.2613 O.2    1 MIR      -0.54200
      4 C1        -25.8754   52.1605    6.9484 C.ar   1 MIR       0.13600
      5 N1        -27.8367   51.3369    5.8064 N.pl3  1 MIR      -0.43000
      6 C2        -24.7405   51.8899    7.7159 C.ar   1 MIR      -0.11600
      7 C3        -24.4287   50.5880    8.0924 C.ar   1 MIR      -0.11200
      8 C4        -25.2589   49.5492    7.6996 C.ar   1 MIR      -0.11300
      9 C5        -26.3865   49.8187    6.9275 C.ar   1 MIR      -0.11400
     10 C6        -26.7109   51.1203    6.5504 C.ar   1 MIR       0.07700
     11 C7        -27.7966   51.9321    4.4733 C.3    1 MIR      -0.04800
     12 C8        -26.5835   52.8550    4.3518 C.3    1 MIR      -0.09700
     13 C9        -26.6169   53.8871    5.4544 C.2    1 MIR       0.43100
     14 C10       -29.0674   52.7064    4.3168 C.ar   1 MIR      -0.02800
     15 C11       -30.1107   52.1406    3.5931 C.ar   1 MIR      -0.11300
     16 C12       -31.3102   52.8262    3.4262 C.ar   1 MIR      -0.11500
     17 C13       -31.4772   54.0854    3.9929 C.ar   1 MIR      -0.11500
     18 C14       -30.4550   54.6589    4.7375 C.ar   1 MIR      -0.11500
     19 C15       -29.2503   53.9660    4.8956 C.ar   1 MIR      -0.11300
     20 H1        -25.7465   53.9440    8.6361 H      1 MIR       0.09000
     21 H2        -27.0940   54.8328    7.9693 H      1 MIR       0.09000
     22 H3        -25.4604   55.2527    7.5148 H      1 MIR       0.09000
     23 H4        -28.7091   51.0819    6.1842 H      1 MIR       0.33800
     24 H5        -24.1255   52.6652    8.0072 H      1 MIR       0.11500
     25 H6        -23.5875   50.3963    8.6588 H      1 MIR       0.11500
     26 H7        -25.0418   48.5798    7.9781 H      1 MIR       0.11500
     27 H8        -26.9936   49.0395    6.6287 H      1 MIR       0.11500
     28 H9        -27.7728   51.2083    3.6860 H      1 MIR       0.09000
     29 H10       -25.6871   52.2770    4.4333 H      1 MIR       0.09000
     30 H11       -26.6077   53.3496    3.4030 H      1 MIR       0.09000
     31 H12       -29.9950   51.2034    3.1762 H      1 MIR       0.11500
     32 H13       -32.0768   52.3998    2.8814 H      1 MIR       0.11500
     33 H14       -32.3647   54.5955    3.8596 H      1 MIR       0.11500
     34 H15       -30.5828   55.5875    5.1702 H      1 MIR       0.11500
     35 H16       -28.4869   54.3893    5.4460 H      1 MIR       0.11500
@<TRIPOS>BOND
      1       1      13 am
      2       2      22 1
      3       2       1 1
      4       4      10 ar
      5       4       1 1
      6       5      11 1
      7       6      24 1
      8       6       4 ar
      9       7       6 ar
     10       8       7 ar
     11       8       9 ar
     12       9      27 1
     13       9      10 ar
     14      10       5 1
     15      11      28 1
     16      11      12 1
     17      11      14 1
     18      12      30 1
     19      13       3 2
     20      13      12 1
     21      14      15 ar
     22      15      31 1
     23      15      16 ar
     24      16      32 1
     25      17      16 ar
     26      17      33 1
     27      18      17 ar
     28      19      14 ar
     29      19      18 ar
     30      20       2 1
     31      21       2 1
     32      23       5 1
     33      25       7 1
     34      26       8 1
     35      29      12 1
     36      34      18 1
     37      35      19 1
@<TRIPOS>ALT_TYPE
CGenFF_4.0_ALT_TYPE_SET
CGenFF_4.0 1 NG2S0 2 CG331 3 OG2D1 4 CG2R61 5 NG311 6 CG2R61 7 CG2R61 8 CG2R61 9 CG2R61 10 CG2R61 11 CG311 12 CG321 13 CG2O1 14 CG2R61 15 CG2R61 16 CG2R61 17 CG2R61 18 CG2R61 19 CG2R61 20 HGA3 21 HGA3 22 HGA3 23 HGPAM1 24 HGR61 25 HGR61 26 HGR61 27 HGR61 28 HGA1 29 HGA2 30 HGA2 31 HGR61 32 HGR61 33 HGR61 34 HGR61 35 HGR61
